*SPEF "IEEE 1481-1998"
*DESIGN "uart"
*DATE "Sun Apr 18 08:33:54 2021"
*VENDOR "AUC CSCE Department"
*PROGRAM "SPEF Extractor"
*VERSION "1.0"
*DESIGN_FLOW "PIN_CAP NONE"
*DIVIDER /
*DELIMITER :
*BUS_DELIMITER []
*T_UNIT 1.00000 NS
*C_UNIT 1.00000 PF
*R_UNIT 1.00000 OHM
*L_UNIT 1.00000 HENRY


*NAME_MAP
*0 csr_a[0]
*1 csr_a[10]
*2 csr_a[11]
*3 csr_a[12]
*4 csr_a[13]
*5 csr_a[1]
*6 csr_a[2]
*7 csr_a[3]
*8 csr_a[4]
*9 csr_a[5]
*10 csr_a[6]
*11 csr_a[7]
*12 csr_a[8]
*13 csr_a[9]
*14 csr_di[0]
*15 csr_di[10]
*16 csr_di[11]
*17 csr_di[12]
*18 csr_di[13]
*19 csr_di[14]
*20 csr_di[15]
*21 csr_di[16]
*22 csr_di[17]
*23 csr_di[18]
*24 csr_di[19]
*25 csr_di[1]
*26 csr_di[20]
*27 csr_di[21]
*28 csr_di[22]
*29 csr_di[23]
*30 csr_di[24]
*31 csr_di[25]
*32 csr_di[26]
*33 csr_di[27]
*34 csr_di[28]
*35 csr_di[29]
*36 csr_di[2]
*37 csr_di[30]
*38 csr_di[31]
*39 csr_di[3]
*40 csr_di[4]
*41 csr_di[5]
*42 csr_di[6]
*43 csr_di[7]
*44 csr_di[8]
*45 csr_di[9]
*46 csr_do[0]
*47 csr_do[10]
*48 csr_do[11]
*49 csr_do[12]
*50 csr_do[13]
*51 csr_do[14]
*52 csr_do[15]
*53 csr_do[16]
*54 csr_do[17]
*55 csr_do[18]
*56 csr_do[19]
*57 csr_do[1]
*58 csr_do[20]
*59 csr_do[21]
*60 csr_do[22]
*61 csr_do[23]
*62 csr_do[24]
*63 csr_do[25]
*64 csr_do[26]
*65 csr_do[27]
*66 csr_do[28]
*67 csr_do[29]
*68 csr_do[2]
*69 csr_do[30]
*70 csr_do[31]
*71 csr_do[3]
*72 csr_do[4]
*73 csr_do[5]
*74 csr_do[6]
*75 csr_do[7]
*76 csr_do[8]
*77 csr_do[9]
*78 csr_we
*79 rx_irq
*80 sys_clk
*81 sys_rst
*82 tx_irq
*83 uart_rx
*84 uart_tx
*85 _0000_
*86 _0001_
*87 _0002_
*88 _0003_
*89 _0004_
*90 _0005_
*91 _0006_
*92 _0007_
*93 _0008_
*94 _0009_
*95 _0010_
*96 _0011_
*97 _0012_
*98 _0013_
*99 _0014_
*100 _0015_
*101 _0016_
*102 _0017_
*103 _0018_
*104 _0019_
*105 _0020_
*106 _0021_
*107 _0022_
*108 _0023_
*109 _0024_
*110 _0025_
*111 _0026_
*112 _0027_
*113 _0028_
*114 _0029_
*115 _0030_
*116 _0031_
*117 _0032_
*118 _0033_
*119 _0034_
*120 _0035_
*121 _0036_
*122 _0037_
*123 _0038_
*124 _0039_
*125 _0040_
*126 _0041_
*127 _0042_
*128 _0043_
*129 _0044_
*130 _0045_
*131 _0046_
*132 _0047_
*133 _0048_
*134 _0049_
*135 _0050_
*136 _0051_
*137 _0052_
*138 _0053_
*139 _0054_
*140 _0055_
*141 _0056_
*142 _0057_
*143 _0058_
*144 _0059_
*145 _0060_
*146 _0061_
*147 _0062_
*148 _0063_
*149 _0064_
*150 _0065_
*151 _0066_
*152 _0067_
*153 _0068_
*154 _0069_
*155 _0070_
*156 _0071_
*157 _0072_
*158 _0073_
*159 _0074_
*160 _0075_
*161 _0076_
*162 _0077_
*163 _0078_
*164 _0079_
*165 _0080_
*166 _0081_
*167 _0082_
*168 _0083_
*169 _0084_
*170 _0085_
*171 _0086_
*172 _0087_
*173 _0088_
*174 _0089_
*175 _0090_
*176 _0091_
*177 _0092_
*178 _0093_
*179 _0094_
*180 _0095_
*181 _0096_
*182 _0097_
*183 _0098_
*184 _0099_
*185 _0100_
*186 _0101_
*187 _0102_
*188 _0103_
*189 _0104_
*190 _0105_
*191 _0106_
*192 _0107_
*193 _0108_
*194 _0109_
*195 _0110_
*196 _0111_
*197 _0112_
*198 _0113_
*199 _0114_
*200 _0115_
*201 _0116_
*202 _0117_
*203 _0118_
*204 _0119_
*205 _0120_
*206 _0121_
*207 _0122_
*208 _0123_
*209 _0124_
*210 _0125_
*211 _0126_
*212 _0127_
*213 _0128_
*214 _0129_
*215 _0130_
*216 _0131_
*217 _0132_
*218 _0133_
*219 _0134_
*220 _0135_
*221 _0136_
*222 _0137_
*223 _0138_
*224 _0139_
*225 _0140_
*226 _0141_
*227 _0142_
*228 _0143_
*229 _0144_
*230 _0145_
*231 _0146_
*232 _0147_
*233 _0148_
*234 _0149_
*235 _0150_
*236 _0151_
*237 _0152_
*238 _0153_
*239 _0154_
*240 _0155_
*241 _0156_
*242 _0157_
*243 _0158_
*244 _0159_
*245 _0160_
*246 _0161_
*247 _0162_
*248 _0163_
*249 _0164_
*250 _0165_
*251 _0166_
*252 _0167_
*253 _0168_
*254 _0169_
*255 _0170_
*256 _0171_
*257 _0172_
*258 _0173_
*259 _0174_
*260 _0175_
*261 _0176_
*262 _0177_
*263 _0178_
*264 _0179_
*265 _0180_
*266 _0181_
*267 _0182_
*268 _0183_
*269 _0184_
*270 _0185_
*271 _0186_
*272 _0187_
*273 _0188_
*274 _0189_
*275 _0190_
*276 _0191_
*277 _0192_
*278 _0193_
*279 _0194_
*280 _0195_
*281 _0196_
*282 _0197_
*283 _0198_
*284 _0199_
*285 _0200_
*286 _0201_
*287 _0202_
*288 _0203_
*289 _0204_
*290 _0205_
*291 _0206_
*292 _0207_
*293 _0208_
*294 _0209_
*295 _0210_
*296 _0211_
*297 _0212_
*298 _0213_
*299 _0214_
*300 _0215_
*301 _0216_
*302 _0217_
*303 _0218_
*304 _0219_
*305 _0220_
*306 _0221_
*307 _0222_
*308 _0223_
*309 _0224_
*310 _0225_
*311 _0226_
*312 _0227_
*313 _0228_
*314 _0229_
*315 _0230_
*316 _0231_
*317 _0232_
*318 _0233_
*319 _0234_
*320 _0235_
*321 _0236_
*322 _0237_
*323 _0238_
*324 _0239_
*325 _0240_
*326 _0241_
*327 _0242_
*328 _0243_
*329 _0244_
*330 _0245_
*331 _0246_
*332 _0247_
*333 _0248_
*334 _0249_
*335 _0250_
*336 _0251_
*337 _0252_
*338 _0253_
*339 _0254_
*340 _0255_
*341 _0256_
*342 _0257_
*343 _0258_
*344 _0259_
*345 _0260_
*346 _0261_
*347 _0262_
*348 _0263_
*349 _0264_
*350 _0265_
*351 _0266_
*352 _0267_
*353 _0268_
*354 _0269_
*355 _0270_
*356 _0271_
*357 _0272_
*358 _0273_
*359 _0274_
*360 _0275_
*361 _0276_
*362 _0277_
*363 _0278_
*364 _0279_
*365 _0280_
*366 _0281_
*367 _0282_
*368 _0283_
*369 _0284_
*370 _0285_
*371 _0286_
*372 _0287_
*373 _0288_
*374 _0289_
*375 _0290_
*376 _0291_
*377 _0292_
*378 _0293_
*379 _0294_
*380 _0295_
*381 _0296_
*382 _0297_
*383 _0298_
*384 _0299_
*385 _0300_
*386 _0301_
*387 _0302_
*388 _0303_
*389 _0304_
*390 _0305_
*391 _0306_
*392 _0307_
*393 _0308_
*394 _0309_
*395 _0310_
*396 _0311_
*397 _0312_
*398 _0313_
*399 _0314_
*400 _0315_
*401 _0316_
*402 _0317_
*403 _0318_
*404 _0319_
*405 _0320_
*406 _0321_
*407 _0322_
*408 _0323_
*409 _0324_
*410 _0325_
*411 _0326_
*412 _0327_
*413 _0328_
*414 _0329_
*415 _0330_
*416 _0331_
*417 _0332_
*418 _0333_
*419 _0334_
*420 _0335_
*421 _0336_
*422 _0337_
*423 _0338_
*424 _0339_
*425 _0340_
*426 _0341_
*427 _0342_
*428 _0343_
*429 _0344_
*430 _0345_
*431 _0346_
*432 _0347_
*433 _0348_
*434 _0349_
*435 _0350_
*436 _0351_
*437 _0352_
*438 _0353_
*439 _0354_
*440 _0355_
*441 _0356_
*442 _0357_
*443 _0358_
*444 _0359_
*445 _0360_
*446 _0361_
*447 _0362_
*448 _0363_
*449 _0364_
*450 _0365_
*451 _0366_
*452 _0367_
*453 _0368_
*454 _0369_
*455 _0370_
*456 _0371_
*457 _0372_
*458 _0373_
*459 _0374_
*460 _0375_
*461 _0376_
*462 _0377_
*463 _0378_
*464 _0379_
*465 _0380_
*466 _0381_
*467 _0382_
*468 _0383_
*469 _0384_
*470 _0385_
*471 _0386_
*472 _0387_
*473 _0388_
*474 _0389_
*475 _0390_
*476 _0391_
*477 _0392_
*478 _0393_
*479 _0394_
*480 _0395_
*481 _0396_
*482 _0397_
*483 _0398_
*484 _0399_
*485 _0400_
*486 _0401_
*487 _0402_
*488 _0403_
*489 _0404_
*490 _0405_
*491 _0406_
*492 _0407_
*493 _0408_
*494 _0409_
*495 _0410_
*496 _0411_
*497 _0412_
*498 _0413_
*499 _0414_
*500 _0415_
*501 _0416_
*502 _0417_
*503 _0418_
*504 _0419_
*505 _0420_
*506 _0421_
*507 _0422_
*508 _0423_
*509 _0424_
*510 _0425_
*511 _0426_
*512 _0427_
*513 _0428_
*514 _0429_
*515 _0430_
*516 _0431_
*517 _0432_
*518 _0433_
*519 _0434_
*520 _0435_
*521 _0436_
*522 _0437_
*523 _0438_
*524 _0439_
*525 _0440_
*526 _0441_
*527 _0442_
*528 _0443_
*529 _0444_
*530 _0445_
*531 _0446_
*532 _0447_
*533 _0448_
*534 _0449_
*535 _0450_
*536 _0451_
*537 _0452_
*538 _0453_
*539 _0454_
*540 _0455_
*541 _0456_
*542 _0457_
*543 _0458_
*544 _0459_
*545 _0460_
*546 _0461_
*547 _0462_
*548 _0463_
*549 _0464_
*550 _0465_
*551 _0466_
*552 _0467_
*553 _0468_
*554 _0469_
*555 _0470_
*556 _0471_
*557 _0472_
*558 _0473_
*559 thru
*560 transceiver.divisor\[0\]
*561 transceiver.divisor\[10\]
*562 transceiver.divisor\[11\]
*563 transceiver.divisor\[12\]
*564 transceiver.divisor\[13\]
*565 transceiver.divisor\[14\]
*566 transceiver.divisor\[15\]
*567 transceiver.divisor\[1\]
*568 transceiver.divisor\[2\]
*569 transceiver.divisor\[3\]
*570 transceiver.divisor\[4\]
*571 transceiver.divisor\[5\]
*572 transceiver.divisor\[6\]
*573 transceiver.divisor\[7\]
*574 transceiver.divisor\[8\]
*575 transceiver.divisor\[9\]
*576 transceiver.enable16_counter\[0\]
*577 transceiver.enable16_counter\[10\]
*578 transceiver.enable16_counter\[11\]
*579 transceiver.enable16_counter\[12\]
*580 transceiver.enable16_counter\[13\]
*581 transceiver.enable16_counter\[14\]
*582 transceiver.enable16_counter\[15\]
*583 transceiver.enable16_counter\[1\]
*584 transceiver.enable16_counter\[2\]
*585 transceiver.enable16_counter\[3\]
*586 transceiver.enable16_counter\[4\]
*587 transceiver.enable16_counter\[5\]
*588 transceiver.enable16_counter\[6\]
*589 transceiver.enable16_counter\[7\]
*590 transceiver.enable16_counter\[8\]
*591 transceiver.enable16_counter\[9\]
*592 transceiver.rx_bitcount\[0\]
*593 transceiver.rx_bitcount\[1\]
*594 transceiver.rx_bitcount\[2\]
*595 transceiver.rx_bitcount\[3\]
*596 transceiver.rx_busy
*597 transceiver.rx_count16\[0\]
*598 transceiver.rx_count16\[1\]
*599 transceiver.rx_count16\[2\]
*600 transceiver.rx_count16\[3\]
*601 transceiver.rx_data\[0\]
*602 transceiver.rx_data\[1\]
*603 transceiver.rx_data\[2\]
*604 transceiver.rx_data\[3\]
*605 transceiver.rx_data\[4\]
*606 transceiver.rx_data\[5\]
*607 transceiver.rx_data\[6\]
*608 transceiver.rx_data\[7\]
*609 transceiver.rx_reg\[0\]
*610 transceiver.rx_reg\[1\]
*611 transceiver.rx_reg\[2\]
*612 transceiver.rx_reg\[3\]
*613 transceiver.rx_reg\[4\]
*614 transceiver.rx_reg\[5\]
*615 transceiver.rx_reg\[6\]
*616 transceiver.rx_reg\[7\]
*617 transceiver.tx_bitcount\[0\]
*618 transceiver.tx_bitcount\[1\]
*619 transceiver.tx_bitcount\[2\]
*620 transceiver.tx_bitcount\[3\]
*621 transceiver.tx_busy
*622 transceiver.tx_count16\[0\]
*623 transceiver.tx_count16\[1\]
*624 transceiver.tx_count16\[2\]
*625 transceiver.tx_count16\[3\]
*626 transceiver.tx_reg\[0\]
*627 transceiver.tx_reg\[1\]
*628 transceiver.tx_reg\[2\]
*629 transceiver.tx_reg\[3\]
*630 transceiver.tx_reg\[4\]
*631 transceiver.tx_reg\[5\]
*632 transceiver.tx_reg\[6\]
*633 transceiver.tx_reg\[7\]
*634 transceiver.tx_wr
*635 transceiver.uart_rx1
*636 transceiver.uart_rx2
*637 transceiver.uart_tx
*638 net1
*639 net2
*640 net3
*641 net4
*642 net5
*643 net6
*644 net7
*645 net8
*646 net9
*647 net10
*648 net11
*649 net12
*650 net13
*651 net14
*652 net15
*653 net16
*654 net17
*655 net18
*656 net19
*657 net20
*658 net21
*659 net22
*660 net23
*661 net24
*662 net25
*663 net26
*664 net27
*665 net28
*666 net29
*667 net30
*668 net31
*669 net32
*670 net33
*671 net34
*672 net35
*673 net36
*674 net37
*675 net38
*676 net39
*677 net40
*678 net41
*679 net42
*680 net43
*681 net44
*682 net45
*683 net46
*684 net47
*685 net48
*686 net49
*687 net50
*688 net51
*689 net52
*690 net53
*691 net54
*692 net55
*693 net56
*694 net57
*695 net58
*696 net59
*697 net60
*698 net61
*699 net62
*700 net63
*701 net64
*702 net65
*703 net66
*704 net67
*705 net68
*706 net69
*707 net70
*708 net71
*709 net72
*710 net73
*711 net74
*712 net75
*713 net76
*714 net77
*715 net78
*716 net79
*717 net80
*718 net81
*719 net82
*720 net83
*721 net84
*722 net85
*723 net86
*724 clknet_0_sys_clk
*725 clknet_1_0_0_sys_clk
*726 clknet_1_1_0_sys_clk
*727 clknet_2_0_0_sys_clk
*728 clknet_2_1_0_sys_clk
*729 clknet_2_2_0_sys_clk
*730 clknet_2_3_0_sys_clk
*731 clknet_3_0_0_sys_clk
*732 clknet_3_1_0_sys_clk
*733 clknet_3_2_0_sys_clk
*734 clknet_3_3_0_sys_clk
*735 clknet_3_4_0_sys_clk
*736 clknet_3_5_0_sys_clk
*737 clknet_3_6_0_sys_clk
*738 clknet_3_7_0_sys_clk

*D_NET *0 0.00040993717191999997
*CONN
*P csr_a[0] I
*I input1:A I
*CAP
0 *0:1 0.0003596407917
1 *0:3 5.029638022e-05
2 *0:4 0
3 input1:A 0
*RES
0 *0:1 *0:2 0.6125666666666667
1 *0:3 *0:4 0.45535714285714285
2 *0:4 *0:2 0
3 input1:A input1:A 0
4 input1:A *0:3 0
*END

*D_NET *1 0.0005688326128
*CONN
*P csr_a[10] I
*I input2:A I
*CAP
4 *1:1 0.0003596407917
5 *1:3 0.00020919182110000001
6 input2:A 0
*RES
5 *1:1 *1:2 0.6125666666666667
6 *1:3 *1:4 2.276785714285714
7 *1:3 *1:2 0
8 input2:A input2:A 0
9 input2:A *1:4 0
*END

*D_NET *2 0.0009076133090600001
*CONN
*P csr_a[11] I
*I input3:A I
*CAP
7 *2:1 8.932229792e-05
8 *2:2 0.00081829101114
9 input3:A 0
*RES
10 *2:1 input3:A 0.8214285714285714
11 *2:2 *2:3 9.25892857142857
12 input3:A input3:A 0
13 *2:1 *2:2 0
*END

*D_NET *3 0.0008921457485400002
*CONN
*P csr_a[12] I
*I input4:A I
*CAP
10 *3:1 0.0006858781437400002
11 *3:3 0.0002062676048
12 input4:A 0
*RES
14 *3:1 *3:2 7.741071428571428
15 *3:3 input4:A 2.0535714285714284
16 *3:3 *3:2 0
17 input4:A input4:A 0
*END

*D_NET *4 0.004769235562260001
*CONN
*P csr_a[13] I
*I input5:A I
*CAP
13 *4:1 0.00024891568132000004
14 *4:3 0.00020919182110000001
15 *4:5 0.0028960096630400002
16 *4:7 0.0008580148713600001
17 *4:9 0.00055710352544
18 *4:10 0
19 input5:A 0
20 *4:6 0
*RES
18 *4:1 *4:2 2.7321428571428568
19 *4:3 *4:4 2.276785714285714
20 *4:5 *4:6 30.39285714285714
21 *4:7 *4:8 9.714285714285714
22 *4:9 *4:10 5.75
23 *4:10 *4:1 0
24 input5:A input5:A 0
25 input5:A *4:2 0
26 *4:5 *4:4 0
27 *4:6 *4:7 0
28 *4:9 *4:8 0
*END

*D_NET *5 0.00099807604246
*CONN
*P csr_a[1] I
*I input6:A I
*CAP
21 *5:1 0.0002062676048
22 *5:2 0.0007918084376600001
23 input6:A 0
*RES
29 *5:1 input6:A 2.0535714285714284
30 *5:2 *5:3 8.95535714285714
31 input6:A input6:A 0
32 *5:1 *5:2 0
*END

*D_NET *6 0.0012949773337799998
*CONN
*P csr_a[2] I
*I input7:A I
*CAP
24 *6:1 0.0012949773337799998
25 input7:A 0
*RES
33 *6:1 *6:2 14.723214285714283
34 input7:A input7:A 0
35 input7:A *6:2 0
*END

*D_NET *7 0.0036431688895799995
*CONN
*P csr_a[3] I
*I input8:A I
*CAP
26 *7:1 0.00047016043327999994
27 input8:A 0.00211637428384
28 *7:4 0.00105663417246
29 *7:2 0
*RES
36 *7:1 *7:2 4.107142857142857
37 *7:1 *7:3 0.6071428571428571
38 input8:A *7:3 22.178571428571427
39 *7:4 *7:5 11.991071428571427
40 *7:2 *7:5 0
41 input8:A input8:A 0
*END

*D_NET *8 0.00202169673342
*CONN
*P csr_a[4] I
*I input9:A I
*CAP
30 *8:1 0.00071303060128
31 *8:2 4.017137184e-05
32 *8:3 0.0012684947603
33 input9:A 0
*RES
42 *8:1 *8:2 7.3928571428571415
43 *8:2 input9:A 0.30357142857142855
44 *8:3 *8:4 14.419642857142854
45 *8:1 *8:4 0
46 input9:A input9:A 0
*END

*D_NET *9 0.0015012449385799998
*CONN
*P csr_a[5] I
*I input10:A I
*CAP
34 input10:A 0.0002062676048
35 *9:2 0.0012949773337799998
36 *9:1 0
*RES
47 input10:A *9:1 2.0535714285714284
48 *9:2 *9:3 14.723214285714283
49 *9:1 *9:3 0
50 input10:A input10:A 0
*END

*D_NET *10 0.0021047385542200003
*CONN
*P csr_a[6] I
*I input11:A I
*CAP
37 *10:1 4.017137184e-05
38 *10:2 0.00121979359776
39 *10:3 0.0008447735846200001
40 input11:A 0
*RES
51 *10:1 input11:A 0.30357142857142855
52 *10:2 *10:1 12.732142857142856
53 *10:3 *10:4 9.5625
54 input11:A input11:A 0
55 *10:2 *10:3 0
*END

*D_NET *11 0.00081829101114
*CONN
*P csr_a[7] I
*I input12:A I
*CAP
41 *11:1 0.00081829101114
42 input12:A 0
*RES
56 *11:1 *11:2 9.25892857142857
57 input12:A input12:A 0
58 input12:A *11:1 0
*END

*D_NET *12 0.0007265019735999999
*CONN
*P csr_a[8] I
*I input13:A I
*CAP
43 *12:1 0.00020919182110000001
44 *12:3 0.0005173101524999999
45 input13:A 0
*RES
59 *12:1 *12:2 2.276785714285714
60 *12:3 *12:4 0.9008333333333334
61 input13:A input13:A 0
62 input13:A *12:2 0
63 *12:1 *12:3 0
*END

*D_NET *13 0.0014524546463200003
*CONN
*P csr_a[9] I
*I input14:A I
*CAP
46 input14:A 5.034052896000001e-05
47 *13:2 0.0009242213050600002
48 *13:4 0.0004778928123
49 *13:1 0
*RES
64 input14:A *13:1 0.4107142857142857
65 *13:2 *13:3 10.473214285714285
66 *13:4 *13:5 0.8287666666666667
67 input14:A input14:A 0
68 *13:1 *13:3 0
69 *13:2 *13:4 0
*END

*D_NET *14 0.00060702387292
*CONN
*P csr_di[0] I
*I input15:A I
*CAP
50 *14:1 5.029638022e-05
51 *14:3 0.0005567274927
52 input15:A 0
53 *14:2 0
*RES
70 *14:1 *14:2 0.45535714285714285
71 *14:3 *14:4 0.9729000000000001
72 input15:A input15:A 0
73 input15:A *14:1 0
74 *14:2 *14:4 0
*END

*D_NET *15 0.0037804689524000004
*CONN
*P csr_di[10] I
*I input16:A I
*CAP
54 *15:1 0.0007932315339000001
55 input16:A 5.034052896000001e-05
56 *15:4 0.0029368968895400003
57 *15:5 0
58 *15:3 0
*RES
75 *15:1 *15:2 1.4053000000000002
76 input16:A *15:3 0.4107142857142857
77 *15:4 *15:5 33.544642857142854
78 *15:5 *15:1 0
79 *15:3 *15:4 0
80 input16:A input16:A 0
*END

*D_NET *16 0.0036800878636599997
*CONN
*P csr_di[11] I
*I input17:A I
*CAP
59 *16:1 0.00048725884264
60 *16:2 4.640188412000001e-05
61 *16:4 0.00149266598048
62 *16:6 0.00056670656308
63 *16:8 0.00040117644959999997
64 *16:3 0.0006858781437400002
65 *16:5 0
66 input17:A 0
*RES
81 *16:1 *16:2 5.4642857142857135
82 *16:2 *16:3 0.4107142857142857
83 *16:4 *16:5 15.607142857142856
84 *16:6 *16:7 6.374999999999999
85 *16:8 input17:A 4.107142857142857
86 *16:3 *16:9 7.741071428571428
87 *16:4 *16:9 0
88 *16:5 *16:6 0
89 *16:8 *16:7 0
90 input17:A input17:A 0
*END

*D_NET *17 0.0012949773337799998
*CONN
*P csr_di[12] I
*I input18:A I
*CAP
67 *17:1 0.0012949773337799998
68 input18:A 0
*RES
91 *17:1 *17:2 14.723214285714283
92 input18:A input18:A 0
93 input18:A *17:2 0
*END

*D_NET *18 0.004627903304500001
*CONN
*P csr_di[13] I
*I input19:A I
*CAP
69 *18:1 0.0005402239896
70 *18:2 4.640188412000001e-05
71 *18:3 0.00026449366572
72 *18:5 0.0005048414556200001
73 *18:7 0.00114301966272
74 *18:10 0.00079218374208
75 input19:A 0.0013367389046400001
76 *18:8 0
*RES
94 *18:1 *18:2 6.07142857142857
95 *18:2 *18:3 0.4107142857142857
96 *18:3 *18:4 2.910714285714285
97 *18:5 *18:4 0.4107142857142857
98 *18:5 *18:6 5.133928571428571
99 *18:7 *18:8 11.5
100 *18:7 *18:9 0.30357142857142855
101 *18:10 *18:9 7.803571428571428
102 *18:10 *18:11 0.30357142857142855
103 input19:A *18:11 13.964285714285714
104 *18:8 *18:6 0
105 input19:A input19:A 0
*END

*D_NET *19 0.00179656250402
*CONN
*P csr_di[14] I
*I input20:A I
*CAP
77 *19:1 0.00048725884264
78 *19:3 0.00110303605658
79 *19:4 0.0002062676048
80 input20:A 0
*RES
106 *19:1 *19:2 5.4642857142857135
107 *19:3 *19:2 0.4107142857142857
108 *19:4 input20:A 2.0535714285714284
109 *19:3 *19:5 11.991071428571427
110 *19:4 *19:5 0
111 input20:A input20:A 0
*END

*D_NET *20 0.00081829101114
*CONN
*P csr_di[15] I
*I input21:A I
*CAP
81 *20:1 0.00081829101114
82 input21:A 0
*RES
112 *20:1 *20:2 9.25892857142857
113 input21:A input21:A 0
114 input21:A *20:1 0
*END

*D_NET *21 0.00179288440254
*CONN
*P csr_di[16] I
*I input22:A I
*CAP
83 *21:1 0.0009481108179199999
84 *21:3 0.0008447735846200001
85 input22:A 0
86 *21:2 0
*RES
115 *21:1 input22:A 0.30357142857142855
116 *21:1 *21:2 9.446428571428571
117 *21:3 *21:4 9.5625
118 input22:A input22:A 0
119 *21:2 *21:3 0
*END

*D_NET *22 0.00038345459844
*CONN
*P csr_di[17] I
*I input23:A I
*CAP
87 *22:1 0.0003596407917
88 *22:3 2.3813806740000006e-05
89 input23:A 0
*RES
120 *22:1 *22:2 0.6125666666666667
121 *22:3 *22:4 0.15178571428571427
122 *22:3 *22:2 0
123 input23:A input23:A 0
124 input23:A *22:4 0
*END

*D_NET *23 0.00081829101114
*CONN
*P csr_di[18] I
*I input24:A I
*CAP
90 *23:1 0.00081829101114
91 input24:A 0
*RES
125 *23:1 *23:2 9.25892857142857
126 input24:A input24:A 0
127 input24:A *23:1 0
*END

*D_NET *24 0.0006205716796799999
*CONN
*P csr_di[19] I
*I input25:A I
*CAP
92 *24:1 0.00010326152718000001
93 *24:3 0.0005173101524999999
94 input25:A 0
*RES
128 *24:1 *24:2 1.0624999999999998
129 *24:3 *24:4 0.9008333333333334
130 input25:A input25:A 0
131 input25:A *24:2 0
132 *24:1 *24:3 0
*END

*D_NET *25 0.00177890102454
*CONN
*P csr_di[1] I
*I input26:A I
*CAP
95 input26:A 4.017137184e-05
96 *25:2 0.0009469212150399999
97 *25:3 0.0007918084376600001
*RES
133 input26:A *25:1 0.30357142857142855
134 *25:2 *25:1 9.857142857142856
135 *25:3 *25:4 8.95535714285714
136 input26:A input26:A 0
137 *25:2 *25:3 0
*END

*D_NET *26 0.00222305919844
*CONN
*P csr_di[20] I
*I input27:A I
*CAP
98 input27:A 0.0002062676048
99 *26:2 0.00055346527634
100 *26:4 0.0014633263173
101 *26:1 0
*RES
138 input27:A *26:1 2.0535714285714284
139 *26:2 *26:3 6.223214285714285
140 *26:4 *26:5 2.6304333333333334
141 input27:A input27:A 0
142 *26:1 *26:3 0
143 *26:2 *26:4 0
*END

*D_NET *27 0.00339624363206
*CONN
*P csr_di[21] I
*I input28:A I
*CAP
102 *27:1 0.00077732116876
103 *27:4 0.0013367389046400001
104 input28:A 4.017137184e-05
105 *27:5 0.00124201218682
106 *27:2 0
107 *27:3 0
*RES
144 *27:1 *27:2 6.982142857142857
145 *27:1 *27:3 73.19999999999999
146 *27:4 *27:3 13.964285714285714
147 input28:A *27:4 0.30357142857142855
148 *27:5 *27:6 14.116071428571427
149 *27:2 *27:6 0
150 *27:1 *27:1 0
151 *27:3 *27:3 0
152 input28:A input28:A 0
*END

*D_NET *28 0.00105663417246
*CONN
*P csr_di[22] I
*I input29:A I
*CAP
108 *28:1 0.00105663417246
109 input29:A 0
*RES
153 *28:1 *28:2 11.991071428571427
154 input29:A input29:A 0
155 input29:A *28:1 0
*END

*D_NET *29 0.00318285569762
*CONN
*P csr_di[23] I
*I input30:A I
*CAP
110 *29:1 0.00032836340175999997
111 *29:2 4.640188412000001e-05
112 *29:4 0.00055710352544
113 *29:6 0.00038132854871999994
114 input30:A 0.0010248847529600001
115 *29:3 0.0008447735846200001
116 *29:5 0
117 *29:8 0
*RES
156 *29:1 *29:2 3.642857142857143
157 *29:2 *29:3 0.4107142857142857
158 *29:4 *29:5 5.75
159 *29:6 *29:7 4.249999999999999
160 input30:A *29:8 10.678571428571429
161 *29:3 *29:9 9.5625
162 *29:5 *29:9 0
163 *29:4 *29:6 0
164 *29:8 *29:7 0
165 input30:A input30:A 0
*END

*D_NET *30 0.00166203553184
*CONN
*P csr_di[24] I
*I input31:A I
*CAP
118 *30:1 0.00055346527634
119 *30:3 0.0011085702555
120 *30:2 0
121 input31:A 0
*RES
166 *30:1 *30:2 6.223214285714285
167 *30:3 *30:4 1.9818333333333336
168 *30:2 *30:3 0
169 input31:A input31:A 0
170 input31:A *30:1 0
*END

*D_NET *31 0.00038345459844
*CONN
*P csr_di[25] I
*I input32:A I
*CAP
122 *31:1 0.0003596407917
123 *31:3 2.3813806740000006e-05
124 *31:4 0
125 input32:A 0
*RES
171 *31:1 *31:2 0.6125666666666667
172 *31:3 *31:4 0.15178571428571427
173 *31:4 *31:2 0
174 input32:A input32:A 0
175 input32:A *31:3 0
*END

*D_NET *32 0.00081829101114
*CONN
*P csr_di[26] I
*I input33:A I
*CAP
126 *32:1 0.00081829101114
127 input33:A 0
*RES
176 *32:1 *32:2 9.25892857142857
177 input33:A input33:A 0
178 input33:A *32:1 0
*END

*D_NET *33 0.00102995955072
*CONN
*P csr_di[27] I
*I input34:A I
*CAP
128 *33:1 0.0003202234515
129 *33:3 0.00065939557026
130 *33:5 5.034052896000001e-05
131 input34:A 0
*RES
179 *33:1 *33:2 0.5405000000000001
180 *33:3 *33:4 7.437499999999999
181 *33:5 input34:A 0.4107142857142857
182 *33:3 *33:2 0
183 *33:5 *33:4 0
184 input34:A input34:A 0
*END

*D_NET *34 0.0011639491055400002
*CONN
*P csr_di[28] I
*I input35:A I
*CAP
132 *34:1 5.034052896000001e-05
133 *34:2 0.00020919182110000001
134 *34:3 4.640188412000001e-05
135 *34:4 0.0008580148713600001
136 input35:A 0
*RES
185 *34:1 input35:A 0.4107142857142857
186 *34:2 *34:3 2.276785714285714
187 *34:3 *34:4 0.4107142857142857
188 *34:4 *34:5 9.714285714285714
189 input35:A input35:A 0
190 *34:1 *34:2 0
*END

*D_NET *35 0.00261540817712
*CONN
*P csr_di[29] I
*I input36:A I
*CAP
137 *35:1 0.0015068379216200002
138 *35:3 0.0011085702555
139 input36:A 0
*RES
191 *35:1 *35:2 17.15178571428571
192 *35:3 *35:4 1.9818333333333336
193 input36:A input36:A 0
194 input36:A *35:2 0
195 *35:1 *35:3 0
*END

*D_NET *36 0.00038345459844
*CONN
*P csr_di[2] I
*I input37:A I
*CAP
140 *36:1 0.0003596407917
141 *36:3 2.3813806740000006e-05
142 *36:4 0
143 input37:A 0
*RES
196 *36:1 *36:2 0.6125666666666667
197 *36:3 *36:4 0.15178571428571427
198 *36:4 *36:2 0
199 input37:A input37:A 0
200 input37:A *36:3 0
*END

*D_NET *37 0.0006747629067200001
*CONN
*P csr_di[30] I
*I input38:A I
*CAP
144 *37:1 0.0003596407917
145 *37:3 0.00031512211502
146 input38:A 0
*RES
201 *37:1 *37:2 0.6125666666666667
202 *37:3 *37:4 3.4910714285714284
203 *37:3 *37:2 0
204 input38:A input38:A 0
205 input38:A *37:4 0
*END

*D_NET *38 0.00450261635894
*CONN
*P csr_di[31] I
*I input39:A I
*CAP
147 *38:1 0.0002753982548
148 *38:2 4.640188412000001e-05
149 *38:3 0.00052931940052
150 *38:4 4.640188412000001e-05
151 *38:5 6.12009693e-05
152 *38:7 4.017137184e-05
153 *38:8 0.0007909941392
154 *38:10 0.00032440251456
155 *38:11 4.017137184e-05
156 *38:12 0.00012830406688
157 *38:14 0.00044134782144
158 *38:15 4.017137184e-05
159 *38:16 0.00075201237024
160 *38:18 0.0008580148713600001
161 *38:20 0.00012830406688
162 *38:17 0
163 input39:A 0
*RES
206 *38:1 *38:2 3.035714285714285
207 *38:2 *38:3 0.4107142857142857
208 *38:3 *38:4 5.946428571428571
209 *38:4 *38:5 0.4107142857142857
210 *38:5 *38:6 0.5803571428571428
211 *38:7 *38:8 0.30357142857142855
212 *38:8 *38:9 8.214285714285714
213 *38:10 *38:9 0.30357142857142855
214 *38:10 *38:11 2.875
215 *38:11 *38:12 0.30357142857142855
216 *38:12 *38:13 1.232142857142857
217 *38:14 *38:13 0.30357142857142855
218 *38:14 *38:15 4.107142857142857
219 *38:15 *38:16 0.30357142857142855
220 *38:16 *38:17 7.803571428571428
221 *38:18 *38:19 9.714285714285714
222 *38:20 input39:A 1.232142857142857
223 *38:7 *38:6 0
224 *38:17 *38:18 0
225 *38:20 *38:19 0
226 input39:A input39:A 0
*END

*D_NET *39 0.0008686315401
*CONN
*P csr_di[3] I
*I input40:A I
*CAP
164 *39:1 5.034052896000001e-05
165 *39:2 0.00081829101114
166 input40:A 0
*RES
227 *39:1 input40:A 0.4107142857142857
228 *39:2 *39:3 9.25892857142857
229 input40:A input40:A 0
230 *39:1 *39:2 0
*END

*D_NET *40 0.00073865124244
*CONN
*P csr_di[4] I
*I input41:A I
*CAP
167 *40:1 0.0003202234515
168 *40:3 0.00036808726198
169 *40:5 5.034052896000001e-05
170 *40:4 0
171 input41:A 0
*RES
231 *40:1 *40:2 0.5405000000000001
232 *40:3 *40:4 4.098214285714286
233 *40:5 input41:A 0.4107142857142857
234 *40:4 *40:2 0
235 *40:5 *40:3 0
236 input41:A input41:A 0
*END

*D_NET *41 0.00124941501372
*CONN
*P csr_di[5] I
*I input42:A I
*CAP
172 *41:1 0.00020919182110000001
173 input42:A 8.932229792e-05
174 *41:4 0.0009509008947
175 *41:3 0
176 *41:2 0
*RES
237 *41:1 *41:2 2.276785714285714
238 input42:A *41:3 0.8214285714285714
239 *41:4 *41:5 1.6935666666666669
240 input42:A input42:A 0
241 *41:3 *41:1 0
242 *41:2 *41:5 0
*END

*D_NET *42 0.00133133448474
*CONN
*P csr_di[6] I
*I input43:A I
*CAP
177 *42:1 8.932229792e-05
178 *42:2 0.00124201218682
179 input43:A 0
*RES
243 *42:1 input43:A 0.8214285714285714
244 *42:2 *42:3 14.116071428571427
245 input43:A input43:A 0
246 *42:1 *42:2 0
*END

*D_NET *43 0.0016226427930200002
*CONN
*P csr_di[7] I
*I input44:A I
*CAP
180 input44:A 8.932229792e-05
181 *43:2 0.0015333204951000002
182 *43:1 0
*RES
247 input44:A *43:1 0.8214285714285714
248 *43:2 *43:3 17.455357142857142
249 *43:1 *43:3 0
250 input44:A input44:A 0
*END

*D_NET *44 0.0008811307355800001
*CONN
*P csr_di[8] I
*I input45:A I
*CAP
183 *44:1 8.932229792e-05
184 *44:2 0.0007918084376600001
185 input45:A 0
*RES
251 *44:1 input45:A 0.8214285714285714
252 *44:2 *44:3 8.95535714285714
253 input45:A input45:A 0
254 *44:1 *44:2 0
*END

*D_NET *45 0.00526647721026
*CONN
*P csr_di[9] I
*I input46:A I
*CAP
186 input46:A 4.017137184e-05
187 *45:2 0.00064615428352
188 *45:3 4.640188412000001e-05
189 *45:1 0.0001088131824
190 *45:6 0.0011709848448
191 *45:7 4.017137184e-05
192 *45:8 0.00114183005984
193 *45:9 9.779659552000001e-05
194 *45:10 0.0003621946806399999
195 *45:12 0.00071422020416
196 *45:4 0.0008977387315800001
197 *45:13 0
*RES
255 input46:A *45:1 0.30357142857142855
256 *45:2 *45:3 7.285714285714286
257 *45:3 *45:4 0.4107142857142857
258 *45:1 *45:5 1.0267857142857142
259 *45:6 *45:5 1.2142857142857142
260 *45:6 *45:7 10.88392857142857
261 *45:7 *45:8 0.30357142857142855
262 *45:8 *45:9 11.910714285714285
263 *45:9 *45:10 0.9107142857142857
264 *45:10 *45:11 3.6964285714285707
265 *45:12 *45:11 0.30357142857142855
266 *45:12 *45:13 6.982142857142857
267 *45:4 *45:14 10.169642857142856
268 input46:A input46:A 0
269 *45:13 *45:14 0
*END

*D_NET *46 0.00063291299678
*CONN
*P csr_do[0] O
*I output50:X O
*CAP
198 *46:1 0.00063291299678
199 output50:X 0
*RES
270 *46:1 *46:2 7.133928571428571
271 output50:X output50:X 0
272 output50:X *46:2 0
*END

*D_NET *47 0.0016188159807800002
*CONN
*P csr_do[10] O
*I output51:X O
*CAP
200 *47:1 0.00063291299678
201 *47:3 0.000985902984
202 output51:X 0
*RES
273 *47:1 *47:2 7.133928571428571
274 *47:3 output51:X 10.267857142857142
275 *47:3 *47:2 0
276 output51:X output51:X 0
*END

*D_NET *48 0.0007918084376600001
*CONN
*P csr_do[11] O
*I output52:X O
*CAP
203 *48:1 0.0007918084376600001
204 output52:X 0
*RES
277 *48:1 *48:2 8.95535714285714
278 output52:X output52:X 0
279 output52:X *48:1 0
*END

*D_NET *49 0.00068325352574
*CONN
*P csr_do[12] O
*I output53:X O
*CAP
205 *49:1 0.00063291299678
206 *49:3 5.034052896000001e-05
207 output53:X 0
*RES
280 *49:1 *49:2 7.133928571428571
281 *49:3 output53:X 0.4107142857142857
282 *49:3 *49:2 0
283 output53:X output53:X 0
*END

*D_NET *50 0.0006335064463999999
*CONN
*P csr_do[13] O
*I output54:X O
*CAP
208 *50:1 0.0005567274927
209 *50:3 7.67789537e-05
210 output54:X 0
*RES
284 *50:1 *50:2 0.9729000000000001
285 *50:3 *50:4 0.7589285714285713
286 *50:3 *50:2 0
287 output54:X output54:X 0
288 output54:X *50:4 0
*END

*D_NET *51 0.00063291299678
*CONN
*P csr_do[14] O
*I output55:X O
*CAP
211 *51:1 0.00063291299678
212 output55:X 0
*RES
289 *51:1 *51:2 7.133928571428571
290 output55:X output55:X 0
291 output55:X *51:2 0
*END

*D_NET *52 0.00058054129944
*CONN
*P csr_do[15] O
*I output56:X O
*CAP
213 *52:1 0.0005567274927
214 *52:3 2.3813806740000006e-05
215 output56:X 0
*RES
292 *52:1 *52:2 0.9729000000000001
293 *52:3 *52:4 0.15178571428571427
294 *52:3 *52:2 0
295 output56:X output56:X 0
296 output56:X *52:4 0
*END

*D_NET *53 0.0015018706739
*CONN
*P csr_do[16] O
*I output57:X O
*CAP
216 *53:1 0.00063291299678
217 *53:3 0.00086895767712
218 output57:X 0
*RES
297 *53:1 *53:2 7.133928571428571
298 *53:3 output57:X 9.035714285714285
299 *53:3 *53:2 0
300 output57:X output57:X 0
*END

*D_NET *54 0.00054112395924
*CONN
*P csr_do[17] O
*I output58:X O
*CAP
219 *54:1 2.3813806740000006e-05
220 *54:3 0.0005173101524999999
221 output58:X 0
222 *54:2 0
*RES
301 *54:1 *54:2 0.15178571428571427
302 *54:3 *54:4 0.9008333333333334
303 output58:X output58:X 0
304 output58:X *54:1 0
305 *54:2 *54:3 0
*END

*D_NET *55 0.0009913277083999999
*CONN
*P csr_do[18] O
*I output59:X O
*CAP
223 *55:1 0.00047401755590000005
224 *55:3 0.0005173101524999999
225 output59:X 0
226 *55:2 0
*RES
306 *55:1 *55:2 5.3125
307 *55:3 *55:4 0.9008333333333334
308 output59:X output59:X 0
309 output59:X *55:1 0
310 *55:2 *55:3 0
*END

*D_NET *56 0.0010042624751199999
*CONN
*P csr_do[19] O
*I output60:X O
*CAP
227 *56:1 0.00044753498242
228 *56:3 0.0005567274927